pyrd12.xyz
 OpenBabel08062421443D

 23 24  0  0  0  0  0  0  0  0999 V2000
   -3.0295   -1.5253    0.3435 C   0  0  0  0  0  0  0  0  0  0  0  0
   -1.6414   -1.3616    0.2786 O   0  0  0  0  0  0  0  0  0  0  0  0
   -1.0983   -0.1053    0.1234 C   0  0  0  0  0  0  0  0  0  0  0  0
    0.2790    0.0898    0.0554 C   0  0  0  0  0  0  0  0  0  0  0  0
    1.1185   -1.1294    0.1597 C   0  0  0  0  0  0  0  0  0  0  0  0
    2.4751   -0.9232   -0.4983 C   0  0  0  0  0  0  0  0  0  0  0  0
    3.0611    0.3731   -0.0700 C   0  0  0  0  0  0  0  0  0  0  0  0
    2.2246    1.5197   -0.1664 N   0  0  0  0  0  0  0  0  0  0  0  0
    4.2581    0.4659    0.3657 O   0  0  0  0  0  0  0  0  0  0  0  0
    0.8127    1.3528   -0.1002 C   0  0  0  0  0  0  0  0  0  0  0  0
   -0.0233    2.4020   -0.1861 N   0  0  0  0  0  0  0  0  0  0  0  0
   -1.3690    2.2605   -0.1250 C   0  0  0  0  0  0  0  0  0  0  0  0
   -1.9037    1.0000    0.0304 C   0  0  0  0  0  0  0  0  0  0  0  0
   -3.4716   -1.2234    1.3142 H   0  0  0  0  0  0  0  0  0  0  0  0
   -3.4903   -0.9910   -0.5213 H   0  0  0  0  0  0  0  0  0  0  0  0
   -3.2419   -2.6313    0.2627 H   0  0  0  0  0  0  0  0  0  0  0  0
    1.3405   -1.3151    1.2431 H   0  0  0  0  0  0  0  0  0  0  0  0
    0.6597   -2.0017   -0.3304 H   0  0  0  0  0  0  0  0  0  0  0  0
    3.1044   -1.7904   -0.1887 H   0  0  0  0  0  0  0  0  0  0  0  0
    2.3151   -0.9220   -1.5921 H   0  0  0  0  0  0  0  0  0  0  0  0
    2.6662    2.4709   -0.2848 H   0  0  0  0  0  0  0  0  0  0  0  0
   -2.0578    3.0920   -0.1922 H   0  0  0  0  0  0  0  0  0  0  0  0
   -2.9882    0.8932    0.0788 H   0  0  0  0  0  0  0  0  0  0  0  0
  1 14  1  0  0  0  0
  2  1  1  0  0  0  0
  3  2  1  0  0  0  0
  4  3  1  0  0  0  0
  4  5  1  0  0  0  0
  5 17  1  0  0  0  0
  6 19  1  0  0  0  0
  6  7  1  0  0  0  0
  6  5  1  0  0  0  0
  7  9  2  0  0  0  0
  8 10  1  0  0  0  0
  8  7  1  0  0  0  0
 10  4  2  0  0  0  0
 11 12  2  0  0  0  0
 11 10  1  0  0  0  0
 12 13  1  0  0  0  0
 13 23  1  0  0  0  0
 13  3  2  0  0  0  0
 15  1  1  0  0  0  0
 16  1  1  0  0  0  0
 18  5  1  0  0  0  0
 20  6  1  0  0  0  0
 21  8  1  0  0  0  0
 22 12  1  0  0  0  0
M  END
$$$$
