pyrd9.xyz
 OpenBabel08062421443D

 17 18  0  0  0  0  0  0  0  0999 V2000
    2.2121   -0.9873   -0.0620 C   0  0  0  0  0  0  0  0  0  0  0  0
    0.7569   -0.8171   -0.0144 C   0  0  0  0  0  0  0  0  0  0  0  0
   -0.1262   -1.8307    0.0407 N   0  0  0  0  0  0  0  0  0  0  0  0
   -1.4592   -1.6264    0.0832 C   0  0  0  0  0  0  0  0  0  0  0  0
   -2.5622   -3.0122    0.1548 Cl  0  0  0  0  0  0  0  0  0  0  0  0
   -1.9848   -0.3518    0.0719 C   0  0  0  0  0  0  0  0  0  0  0  0
   -1.1144    0.7125    0.0161 C   0  0  0  0  0  0  0  0  0  0  0  0
    0.2581    0.4841   -0.0272 C   0  0  0  0  0  0  0  0  0  0  0  0
    0.8763    1.6934   -0.0775 C   0  0  0  0  0  0  0  0  0  0  0  0
   -0.0855    2.6207   -0.0652 N   0  0  0  0  0  0  0  0  0  0  0  0
   -1.2817    2.0649   -0.0098 N   0  0  0  0  0  0  0  0  0  0  0  0
    2.6029   -1.0820   -1.0992 H   0  0  0  0  0  0  0  0  0  0  0  0
    2.4462   -1.9223    0.5276 H   0  0  0  0  0  0  0  0  0  0  0  0
    2.7681   -0.1809    0.4634 H   0  0  0  0  0  0  0  0  0  0  0  0
   -3.0425   -0.1337    0.1043 H   0  0  0  0  0  0  0  0  0  0  0  0
    1.9667    1.8464   -0.1198 H   0  0  0  0  0  0  0  0  0  0  0  0
   -2.2308    2.5224    0.0131 H   0  0  0  0  0  0  0  0  0  0  0  0
  1  2  1  0  0  0  0
  1 14  1  0  0  0  0
  1 13  1  0  0  0  0
  2  3  1  0  0  0  0
  3  4  2  0  0  0  0
  4  5  1  0  0  0  0
  6  4  1  0  0  0  0
  6 15  1  0  0  0  0
  7  6  2  0  0  0  0
  8  2  2  0  0  0  0
  8  7  1  0  0  0  0
  9 10  2  0  0  0  0
  9  8  1  0  0  0  0
 10 11  1  0  0  0  0
 11 17  1  0  0  0  0
 11  7  1  0  0  0  0
 12  1  1  0  0  0  0
 16  9  1  0  0  0  0
M  END
$$$$
