pyrd1.xyz
 OpenBabel08062421443D

 19 20  0  0  0  0  0  0  0  0999 V2000
    1.7354    2.9095   -0.5686 Br  0  0  0  0  0  0  0  0  0  0  0  0
    1.6457    1.0409   -0.2041 C   0  0  0  0  0  0  0  0  0  0  0  0
    0.4097    0.4013   -0.1153 C   0  0  0  0  0  0  0  0  0  0  0  0
    0.4227   -0.9524    0.1511 C   0  0  0  0  0  0  0  0  0  0  0  0
   -0.7694   -1.6810    0.2586 O   0  0  0  0  0  0  0  0  0  0  0  0
   -1.9747   -1.0454   -0.1812 C   0  0  0  0  0  0  0  0  0  0  0  0
   -1.9405    0.3637    0.4158 C   0  0  0  0  0  0  0  0  0  0  0  0
   -0.8526    1.1636   -0.3029 C   0  0  0  0  0  0  0  0  0  0  0  0
    1.5972   -1.6560    0.3244 C   0  0  0  0  0  0  0  0  0  0  0  0
    2.7607   -0.9878    0.2279 N   0  0  0  0  0  0  0  0  0  0  0  0
    2.8167    0.3353   -0.0305 C   0  0  0  0  0  0  0  0  0  0  0  0
   -1.8813   -0.9334   -1.2749 H   0  0  0  0  0  0  0  0  0  0  0  0
   -2.8638   -1.5873    0.1366 H   0  0  0  0  0  0  0  0  0  0  0  0
   -2.9124    0.8553    0.3901 H   0  0  0  0  0  0  0  0  0  0  0  0
   -1.6263    0.2269    1.4722 H   0  0  0  0  0  0  0  0  0  0  0  0
   -1.1248    1.2616   -1.3545 H   0  0  0  0  0  0  0  0  0  0  0  0
   -0.7643    2.1382    0.2295 H   0  0  0  0  0  0  0  0  0  0  0  0
    1.5767   -2.7351    0.5359 H   0  0  0  0  0  0  0  0  0  0  0  0
    3.7455    0.8818   -0.1101 H   0  0  0  0  0  0  0  0  0  0  0  0
  1  2  1  0  0  0  0
  2  3  2  0  0  0  0
  2 11  1  0  0  0  0
  3  4  1  0  0  0  0
  4  5  1  0  0  0  0
  4  9  2  0  0  0  0
  6 13  1  0  0  0  0
  6  5  1  0  0  0  0
  6  7  1  0  0  0  0
  7 15  1  0  0  0  0
  8  3  1  0  0  0  0
  8 17  1  0  0  0  0
  8  7  1  0  0  0  0
  9 18  1  0  0  0  0
 10  9  1  0  0  0  0
 11 10  2  0  0  0  0
 12  6  1  0  0  0  0
 14  7  1  0  0  0  0
 16  8  1  0  0  0  0
 19 11  1  0  0  0  0
M  END
$$$$
