pyrdz1.xyz
 OpenBabel08062421443D

 29 30  0  0  0  0  0  0  0  0999 V2000
   -3.8747    1.6771    0.5486 C   0  0  0  0  0  0  0  0  0  0  0  0
   -3.2453    0.3663    1.0192 C   0  0  0  0  0  0  0  0  0  0  0  0
   -4.0413   -0.7897    0.3996 C   0  0  0  0  0  0  0  0  0  0  0  0
   -1.8298    0.2776    0.6166 C   0  0  0  0  0  0  0  0  0  0  0  0
   -0.8858    0.0765    1.5466 N   0  0  0  0  0  0  0  0  0  0  0  0
    0.3867   -0.0094    1.2371 N   0  0  0  0  0  0  0  0  0  0  0  0
    0.8612    0.0929   -0.0119 C   0  0  0  0  0  0  0  0  0  0  0  0
    2.2904   -0.0201   -0.2198 C   0  0  0  0  0  0  0  0  0  0  0  0
    3.1067   -0.2324    0.9066 C   0  0  0  0  0  0  0  0  0  0  0  0
    4.4432   -0.3440    0.7627 C   0  0  0  0  0  0  0  0  0  0  0  0
    5.0686   -0.2609   -0.4458 C   0  0  0  0  0  0  0  0  0  0  0  0
    7.1620   -0.4376   -0.6558 I   0  0  0  0  0  0  0  0  0  0  0  0
    4.2676   -0.0540   -1.5402 C   0  0  0  0  0  0  0  0  0  0  0  0
    2.8730    0.0703   -1.4556 C   0  0  0  0  0  0  0  0  0  0  0  0
    2.1889    0.2731   -2.6099 F   0  0  0  0  0  0  0  0  0  0  0  0
   -0.0205    0.2965   -1.0133 C   0  0  0  0  0  0  0  0  0  0  0  0
   -1.3953    0.3895   -0.6806 C   0  0  0  0  0  0  0  0  0  0  0  0
   -4.5859    2.0772    1.2763 H   0  0  0  0  0  0  0  0  0  0  0  0
   -3.0336    2.4253    0.4954 H   0  0  0  0  0  0  0  0  0  0  0  0
   -4.2694    1.5954   -0.4836 H   0  0  0  0  0  0  0  0  0  0  0  0
   -3.3394    0.2456    2.1126 H   0  0  0  0  0  0  0  0  0  0  0  0
   -4.0164   -0.7131   -0.7216 H   0  0  0  0  0  0  0  0  0  0  0  0
   -5.0775   -0.6888    0.7502 H   0  0  0  0  0  0  0  0  0  0  0  0
   -3.5542   -1.7348    0.7023 H   0  0  0  0  0  0  0  0  0  0  0  0
    2.5992   -0.2994    1.8837 H   0  0  0  0  0  0  0  0  0  0  0  0
    5.0615   -0.5073    1.6368 H   0  0  0  0  0  0  0  0  0  0  0  0
    4.7163    0.0217   -2.5425 H   0  0  0  0  0  0  0  0  0  0  0  0
    0.2412    0.3942   -2.0505 H   0  0  0  0  0  0  0  0  0  0  0  0
   -2.0974    0.5498   -1.4629 H   0  0  0  0  0  0  0  0  0  0  0  0
  1  2  1  0  0  0  0
  1 18  1  0  0  0  0
  2 21  1  0  0  0  0
  3 24  1  0  0  0  0
  3 23  1  0  0  0  0
  3  2  1  0  0  0  0
  4  2  1  0  0  0  0
  4  5  1  0  0  0  0
  6  5  2  0  0  0  0
  7  6  1  0  0  0  0
  8  7  1  0  0  0  0
  8  9  1  0  0  0  0
  9 25  1  0  0  0  0
 10  9  2  0  0  0  0
 10 26  1  0  0  0  0
 11 10  1  0  0  0  0
 12 11  1  0  0  0  0
 13 14  1  0  0  0  0
 13 11  2  0  0  0  0
 14  8  2  0  0  0  0
 15 14  1  0  0  0  0
 16 17  1  0  0  0  0
 16  7  2  0  0  0  0
 17  4  2  0  0  0  0
 19  1  1  0  0  0  0
 20  1  1  0  0  0  0
 22  3  1  0  0  0  0
 27 13  1  0  0  0  0
 28 16  1  0  0  0  0
 29 17  1  0  0  0  0
M  END
$$$$
