pyrd6.xyz
 OpenBabel08062421443D

 31 31  0  0  0  0  0  0  0  0999 V2000
    4.0490   -3.7245   -0.5447 Br  0  0  0  0  0  0  0  0  0  0  0  0
    3.4702   -1.8963   -0.5107 C   0  0  0  0  0  0  0  0  0  0  0  0
    4.3246   -0.8928   -0.0951 C   0  0  0  0  0  0  0  0  0  0  0  0
    3.8136    0.4014   -0.1054 C   0  0  0  0  0  0  0  0  0  0  0  0
    4.6405    1.5493    0.3191 C   0  0  0  0  0  0  0  0  0  0  0  0
    2.5174    0.6324   -0.5154 C   0  0  0  0  0  0  0  0  0  0  0  0
    1.7013   -0.3845   -0.9197 C   0  0  0  0  0  0  0  0  0  0  0  0
    0.3510   -0.1384   -1.3461 N   0  0  0  0  0  0  0  0  0  0  0  0
   -0.7213   -0.1576   -0.4183 C   0  0  0  0  0  0  0  0  0  0  0  0
   -2.0287    0.0782   -0.8165 O   0  0  0  0  0  0  0  0  0  0  0  0
   -3.0716    0.0572    0.1001 C   0  0  0  0  0  0  0  0  0  0  0  0
   -2.9399    1.0695    1.2084 C   0  0  0  0  0  0  0  0  0  0  0  0
   -3.1792   -1.3081    0.7316 C   0  0  0  0  0  0  0  0  0  0  0  0
   -4.3885    0.3431   -0.6102 C   0  0  0  0  0  0  0  0  0  0  0  0
   -0.5242   -0.3881    0.7925 O   0  0  0  0  0  0  0  0  0  0  0  0
    2.1993   -1.6491   -0.9101 N   0  0  0  0  0  0  0  0  0  0  0  0
    5.3379   -1.1038    0.2216 H   0  0  0  0  0  0  0  0  0  0  0  0
    4.1465    2.1138    1.1494 H   0  0  0  0  0  0  0  0  0  0  0  0
    5.6045    1.1543    0.7355 H   0  0  0  0  0  0  0  0  0  0  0  0
    4.9049    2.2274   -0.5029 H   0  0  0  0  0  0  0  0  0  0  0  0
    2.1513    1.6529   -0.5110 H   0  0  0  0  0  0  0  0  0  0  0  0
    0.2011    0.0531   -2.3624 H   0  0  0  0  0  0  0  0  0  0  0  0
   -3.9622    1.2412    1.6123 H   0  0  0  0  0  0  0  0  0  0  0  0
   -2.3290    0.7136    2.0538 H   0  0  0  0  0  0  0  0  0  0  0  0
   -2.6030    2.0673    0.8203 H   0  0  0  0  0  0  0  0  0  0  0  0
   -4.1058   -1.8372    0.4306 H   0  0  0  0  0  0  0  0  0  0  0  0
   -3.2059   -1.2586    1.8506 H   0  0  0  0  0  0  0  0  0  0  0  0
   -2.2810   -1.9008    0.4741 H   0  0  0  0  0  0  0  0  0  0  0  0
   -4.2541    1.2528   -1.2446 H   0  0  0  0  0  0  0  0  0  0  0  0
   -4.6630   -0.5484   -1.2259 H   0  0  0  0  0  0  0  0  0  0  0  0
   -5.1556    0.5808    0.1391 H   0  0  0  0  0  0  0  0  0  0  0  0
  1  2  1  0  0  0  0
  2  3  1  0  0  0  0
  3 17  1  0  0  0  0
  4  3  2  0  0  0  0
  4  5  1  0  0  0  0
  5 19  1  0  0  0  0
  5 18  1  0  0  0  0
  6 21  1  0  0  0  0
  6  4  1  0  0  0  0
  7 16  1  0  0  0  0
  7  6  2  0  0  0  0
  8  7  1  0  0  0  0
  8  9  1  0  0  0  0
  9 15  2  0  0  0  0
 10  9  1  0  0  0  0
 10 11  1  0  0  0  0
 11 13  1  0  0  0  0
 11 12  1  0  0  0  0
 12 23  1  0  0  0  0
 12 24  1  0  0  0  0
 13 27  1  0  0  0  0
 14 11  1  0  0  0  0
 14 31  1  0  0  0  0
 16  2  2  0  0  0  0
 20  5  1  0  0  0  0
 22  8  1  0  0  0  0
 25 12  1  0  0  0  0
 26 13  1  0  0  0  0
 28 13  1  0  0  0  0
 29 14  1  0  0  0  0
 30 14  1  0  0  0  0
M  END
$$$$
