pyrd2.xyz
 OpenBabel08062421443D

 14 14  0  0  0  0  0  0  0  0999 V2000
   -1.4728   -2.4949   -0.2463 Cl  0  0  0  0  0  0  0  0  0  0  0  0
   -0.2039   -1.2868   -0.1583 C   0  0  0  0  0  0  0  0  0  0  0  0
    1.1008   -1.6311   -0.2713 N   0  0  0  0  0  0  0  0  0  0  0  0
    2.0995   -0.7310   -0.2085 C   0  0  0  0  0  0  0  0  0  0  0  0
    1.7416    0.5889   -0.0203 C   0  0  0  0  0  0  0  0  0  0  0  0
    0.4195    0.9914    0.1012 C   0  0  0  0  0  0  0  0  0  0  0  0
   -0.5614    0.0305    0.0296 C   0  0  0  0  0  0  0  0  0  0  0  0
   -1.9742    0.4472    0.1577 C   0  0  0  0  0  0  0  0  0  0  0  0
    3.1513   -1.0133   -0.3002 H   0  0  0  0  0  0  0  0  0  0  0  0
    2.5391    1.3202    0.0315 H   0  0  0  0  0  0  0  0  0  0  0  0
    0.1783    2.0230    0.2463 H   0  0  0  0  0  0  0  0  0  0  0  0
   -2.5804   -0.3235    0.7000 H   0  0  0  0  0  0  0  0  0  0  0  0
   -2.0677    1.3889    0.7736 H   0  0  0  0  0  0  0  0  0  0  0  0
   -2.3696    0.6906   -0.8350 H   0  0  0  0  0  0  0  0  0  0  0  0
  1  2  1  0  0  0  0
  2  7  1  0  0  0  0
  3  4  1  0  0  0  0
  3  2  2  0  0  0  0
  4  5  2  0  0  0  0
  5 10  1  0  0  0  0
  5  6  1  0  0  0  0
  6 11  1  0  0  0  0
  7  6  2  0  0  0  0
  7  8  1  0  0  0  0
  8 12  1  0  0  0  0
  8 13  1  0  0  0  0
  9  4  1  0  0  0  0
 14  8  1  0  0  0  0
M  END
$$$$
