pyrd5.xyz
 OpenBabel08062421443D

 17 17  0  0  0  0  0  0  0  0999 V2000
    0.1614    3.7318   -0.0694 Cl  0  0  0  0  0  0  0  0  0  0  0  0
    0.0836    1.9687   -0.0415 C   0  0  0  0  0  0  0  0  0  0  0  0
   -1.1354    1.4084   -0.1516 N   0  0  0  0  0  0  0  0  0  0  0  0
   -1.3074    0.0748   -0.1418 C   0  0  0  0  0  0  0  0  0  0  0  0
   -2.6647   -0.5142   -0.2650 C   0  0  0  0  0  0  0  0  0  0  0  0
   -2.5502   -1.8877   -0.3488 F   0  0  0  0  0  0  0  0  0  0  0  0
   -3.3440   -0.2237    0.9065 F   0  0  0  0  0  0  0  0  0  0  0  0
   -3.3433    0.0016   -1.3719 F   0  0  0  0  0  0  0  0  0  0  0  0
   -0.1701   -0.7144   -0.0127 C   0  0  0  0  0  0  0  0  0  0  0  0
    1.0903   -0.1644    0.1016 C   0  0  0  0  0  0  0  0  0  0  0  0
    2.2957   -1.0319    0.2390 C   0  0  0  0  0  0  0  0  0  0  0  0
    1.2332    1.2073    0.0882 C   0  0  0  0  0  0  0  0  0  0  0  0
   -0.3258   -1.7941   -0.0065 H   0  0  0  0  0  0  0  0  0  0  0  0
    2.9774   -0.8544   -0.6251 H   0  0  0  0  0  0  0  0  0  0  0  0
    2.8211   -0.8230    1.2172 H   0  0  0  0  0  0  0  0  0  0  0  0
    1.9880   -2.0957    0.3084 H   0  0  0  0  0  0  0  0  0  0  0  0
    2.1902    1.7110    0.1733 H   0  0  0  0  0  0  0  0  0  0  0  0
  1  2  1  0  0  0  0
  2 12  1  0  0  0  0
  3  4  1  0  0  0  0
  3  2  2  0  0  0  0
  4  9  2  0  0  0  0
  5  4  1  0  0  0  0
  5  7  1  0  0  0  0
  6  5  1  0  0  0  0
  8  5  1  0  0  0  0
  9 13  1  0  0  0  0
  9 10  1  0  0  0  0
 10 11  1  0  0  0  0
 11 16  1  0  0  0  0
 11 15  1  0  0  0  0
 12 10  2  0  0  0  0
 12 17  1  0  0  0  0
 14 11  1  0  0  0  0
M  END
$$$$
