pyrmd4.xyz
 OpenBabel08062421443D

 14 14  0  0  0  0  0  0  0  0999 V2000
    0.6101   -1.8127   -2.9756 Cl  0  0  0  0  0  0  0  0  0  0  0  0
    0.4647   -0.7146   -1.6246 C   0  0  0  0  0  0  0  0  0  0  0  0
    1.0352    0.5023   -1.5960 N   0  0  0  0  0  0  0  0  0  0  0  0
    0.9181    1.3399   -0.5530 C   0  0  0  0  0  0  0  0  0  0  0  0
    1.5505    2.6489   -0.5600 C   0  0  0  0  0  0  0  0  0  0  0  0
    2.0587    3.6899   -0.5604 N   0  0  0  0  0  0  0  0  0  0  0  0
    0.1927    0.9230    0.5009 N   0  0  0  0  0  0  0  0  0  0  0  0
   -0.4120   -0.2761    0.5580 C   0  0  0  0  0  0  0  0  0  0  0  0
   -1.2098   -0.7204    1.7308 C   0  0  0  0  0  0  0  0  0  0  0  0
   -0.2648   -1.1033   -0.5352 C   0  0  0  0  0  0  0  0  0  0  0  0
   -0.5333   -0.9472    2.6049 H   0  0  0  0  0  0  0  0  0  0  0  0
   -1.8144   -1.5747    1.4422 H   0  0  0  0  0  0  0  0  0  0  0  0
   -1.8663    0.1148    2.1035 H   0  0  0  0  0  0  0  0  0  0  0  0
   -0.7292   -2.0699   -0.5354 H   0  0  0  0  0  0  0  0  0  0  0  0
  1  2  1  0  0  0  0
  2  3  1  0  0  0  0
  2 10  2  0  0  0  0
  3  4  2  0  0  0  0
  4  7  1  0  0  0  0
  5  4  1  0  0  0  0
  6  5  3  0  0  0  0
  7  8  2  0  0  0  0
  8  9  1  0  0  0  0
  9 13  1  0  0  0  0
  9 11  1  0  0  0  0
 10  8  1  0  0  0  0
 12  9  1  0  0  0  0
 14 10  1  0  0  0  0
M  END
$$$$
