pyrmd2.xyz
 OpenBabel08062421443D

 23 24  0  0  0  0  0  0  0  0999 V2000
    4.0200    1.2843    2.0949 Cl  0  0  0  0  0  0  0  0  0  0  0  0
    3.1325    0.6094    0.7413 C   0  0  0  0  0  0  0  0  0  0  0  0
    3.4957    0.8304   -0.5701 C   0  0  0  0  0  0  0  0  0  0  0  0
    2.7992    0.3007   -1.6347 C   0  0  0  0  0  0  0  0  0  0  0  0
    3.2837    0.5983   -3.2891 Cl  0  0  0  0  0  0  0  0  0  0  0  0
    1.7259   -0.4583   -1.3369 N   0  0  0  0  0  0  0  0  0  0  0  0
    1.3455   -0.6930   -0.0681 C   0  0  0  0  0  0  0  0  0  0  0  0
    0.1603   -1.5325    0.2133 C   0  0  0  0  0  0  0  0  0  0  0  0
   -1.0782   -0.6942    0.2805 C   0  0  0  0  0  0  0  0  0  0  0  0
   -1.8018   -0.4756   -0.8704 C   0  0  0  0  0  0  0  0  0  0  0  0
   -2.9526    0.2857   -0.8854 C   0  0  0  0  0  0  0  0  0  0  0  0
   -3.3856    0.8434    0.2995 C   0  0  0  0  0  0  0  0  0  0  0  0
   -2.6574    0.6235    1.4583 C   0  0  0  0  0  0  0  0  0  0  0  0
   -1.5122   -0.1369    1.4607 C   0  0  0  0  0  0  0  0  0  0  0  0
    2.0377   -0.1673    0.9610 N   0  0  0  0  0  0  0  0  0  0  0  0
    4.3554    1.4398   -0.7610 H   0  0  0  0  0  0  0  0  0  0  0  0
    0.2807   -2.1470    1.1372 H   0  0  0  0  0  0  0  0  0  0  0  0
    0.0034   -2.2579   -0.6097 H   0  0  0  0  0  0  0  0  0  0  0  0
   -1.4686   -0.9142   -1.8237 H   0  0  0  0  0  0  0  0  0  0  0  0
   -3.5195    0.4520   -1.8088 H   0  0  0  0  0  0  0  0  0  0  0  0
   -4.2848    1.4388    0.2904 H   0  0  0  0  0  0  0  0  0  0  0  0
   -3.0303    1.0788    2.3692 H   0  0  0  0  0  0  0  0  0  0  0  0
   -0.9489   -0.3082    2.3516 H   0  0  0  0  0  0  0  0  0  0  0  0
  2 15  2  0  0  0  0
  2  1  1  0  0  0  0
  3  2  1  0  0  0  0
  4  6  1  0  0  0  0
  4  3  2  0  0  0  0
  5  4  1  0  0  0  0
  6  7  2  0  0  0  0
  7  8  1  0  0  0  0
  7 15  1  0  0  0  0
  8  9  1  0  0  0  0
  8 17  1  0  0  0  0
  9 14  1  0  0  0  0
 10  9  2  0  0  0  0
 11 10  1  0  0  0  0
 11 12  2  0  0  0  0
 12 13  1  0  0  0  0
 13 14  2  0  0  0  0
 13 22  1  0  0  0  0
 14 23  1  0  0  0  0
 16  3  1  0  0  0  0
 18  8  1  0  0  0  0
 19 10  1  0  0  0  0
 20 11  1  0  0  0  0
 21 12  1  0  0  0  0
M  END
$$$$
