pyrd3.xyz
 OpenBabel10182410313D

 20 21  0  0  0  0  0  0  0  0999 V2000
    2.3836   -0.6102    0.2218 C   0  0  0  0  0  0  0  0  0  0  0  0
    1.2488    0.3377    0.2201 C   0  0  0  0  0  0  0  0  0  0  0  0
    1.4457    1.7226    0.2576 C   0  0  0  0  0  0  0  0  0  0  0  0
    0.3577    2.5707    0.2545 C   0  0  0  0  0  0  0  0  0  0  0  0
   -0.8821    2.0884    0.2163 N   0  0  0  0  0  0  0  0  0  0  0  0
   -1.0598    0.7669    0.1808 C   0  0  0  0  0  0  0  0  0  0  0  0
   -0.0556   -0.1649    0.1801 C   0  0  0  0  0  0  0  0  0  0  0  0
   -0.2126   -1.5261    0.1441 C   0  0  0  0  0  0  0  0  0  0  0  0
   -1.5251   -1.9703    0.1052 C   0  0  0  0  0  0  0  0  0  0  0  0
   -2.5926   -1.0840    0.1035 C   0  0  0  0  0  0  0  0  0  0  0  0
   -2.3666    0.2793    0.1410 C   0  0  0  0  0  0  0  0  0  0  0  0
    2.5061   -0.9568   -0.8401 H   0  0  0  0  0  0  0  0  0  0  0  0
    2.3420   -1.4061    0.9584 H   0  0  0  0  0  0  0  0  0  0  0  0
    3.3035   -0.0212    0.4704 H   0  0  0  0  0  0  0  0  0  0  0  0
    2.4988    2.0283    0.2875 H   0  0  0  0  0  0  0  0  0  0  0  0
    0.5984    3.6408    0.2853 H   0  0  0  0  0  0  0  0  0  0  0  0
    0.5944   -2.2193    0.1448 H   0  0  0  0  0  0  0  0  0  0  0  0
   -1.7861   -3.0242    0.0744 H   0  0  0  0  0  0  0  0  0  0  0  0
   -3.6127   -1.4450    0.0729 H   0  0  0  0  0  0  0  0  0  0  0  0
   -3.1858    0.9933    0.1405 H   0  0  0  0  0  0  0  0  0  0  0  0
  1 14  1  0  0  0  0
  1 13  1  0  0  0  0
  2  1  1  0  0  0  0
  2  3  1  0  0  0  0
  3 15  1  0  0  0  0
  4  3  2  0  0  0  0
  4 16  1  0  0  0  0
  5  4  1  0  0  0  0
  6  5  2  0  0  0  0
  7  6  1  0  0  0  0
  7  2  2  0  0  0  0
  8 17  1  0  0  0  0
  8  7  1  0  0  0  0
  9  8  2  0  0  0  0
 10  9  1  0  0  0  0
 10 11  2  0  0  0  0
 11  6  1  0  0  0  0
 12  1  1  0  0  0  0
 18  9  1  0  0  0  0
 19 10  1  0  0  0  0
 20 11  1  0  0  0  0
M  END
$$$$
