pyrd1.xyz
 OpenBabel10182410313D

 20 21  0  0  0  0  0  0  0  0999 V2000
    3.2993   -0.5043   -0.0218 C   0  0  0  0  0  0  0  0  0  0  0  0
    1.8874   -0.0563    0.0254 C   0  0  0  0  0  0  0  0  0  0  0  0
    0.8945   -0.9374   -0.1491 N   0  0  0  0  0  0  0  0  0  0  0  0
   -0.4216   -0.5971   -0.1185 C   0  0  0  0  0  0  0  0  0  0  0  0
   -0.7573    0.7242    0.1037 C   0  0  0  0  0  0  0  0  0  0  0  0
   -2.1216    1.0235    0.1261 C   0  0  0  0  0  0  0  0  0  0  0  0
   -3.0189   -0.0052   -0.0720 C   0  0  0  0  0  0  0  0  0  0  0  0
   -2.6536   -1.3146   -0.2915 C   0  0  0  0  0  0  0  0  0  0  0  0
   -1.2958   -1.6448   -0.3195 C   0  0  0  0  0  0  0  0  0  0  0  0
    0.2180    1.6849    0.2917 C   0  0  0  0  0  0  0  0  0  0  0  0
    1.5288    1.2555    0.2455 C   0  0  0  0  0  0  0  0  0  0  0  0
    3.9539    0.2501    0.4958 H   0  0  0  0  0  0  0  0  0  0  0  0
    3.6788   -0.6499   -1.0553 H   0  0  0  0  0  0  0  0  0  0  0  0
    3.4262   -1.4501    0.5747 H   0  0  0  0  0  0  0  0  0  0  0  0
   -2.4365    2.0439    0.2965 H   0  0  0  0  0  0  0  0  0  0  0  0
   -4.0899    0.2338   -0.0538 H   0  0  0  0  0  0  0  0  0  0  0  0
   -3.3524   -2.1255   -0.4475 H   0  0  0  0  0  0  0  0  0  0  0  0
   -0.9604   -2.6474   -0.4863 H   0  0  0  0  0  0  0  0  0  0  0  0
   -0.0740    2.7139    0.4641 H   0  0  0  0  0  0  0  0  0  0  0  0
    2.2950    2.0029    0.3919 H   0  0  0  0  0  0  0  0  0  0  0  0
  1  2  1  0  0  0  0
  1 12  1  0  0  0  0
  1 14  1  0  0  0  0
  2 11  1  0  0  0  0
  3  4  1  0  0  0  0
  3  2  2  0  0  0  0
  4  5  1  0  0  0  0
  5  6  2  0  0  0  0
  5 10  1  0  0  0  0
  6 15  1  0  0  0  0
  7 16  1  0  0  0  0
  7  6  1  0  0  0  0
  8  7  2  0  0  0  0
  9  8  1  0  0  0  0
  9  4  2  0  0  0  0
 10 19  1  0  0  0  0
 11 10  2  0  0  0  0
 11 20  1  0  0  0  0
 13  1  1  0  0  0  0
 17  8  1  0  0  0  0
 18  9  1  0  0  0  0
M  END
$$$$
