pyrd12.xyz
 OpenBabel10182410313D

 23 24  0  0  0  0  0  0  0  0999 V2000
   -2.6901    0.5050   -0.8205 C   0  0  0  0  0  0  0  0  0  0  0  0
   -2.1655   -0.1986    0.4160 C   0  0  0  0  0  0  0  0  0  0  0  0
   -0.8318   -0.7961    0.2191 C   0  0  0  0  0  0  0  0  0  0  0  0
   -0.6326   -2.1653    0.0347 C   0  0  0  0  0  0  0  0  0  0  0  0
    0.5691   -2.7437   -0.1476 N   0  0  0  0  0  0  0  0  0  0  0  0
    1.6808   -1.9899   -0.1610 C   0  0  0  0  0  0  0  0  0  0  0  0
    1.5588   -0.6262    0.0147 C   0  0  0  0  0  0  0  0  0  0  0  0
    2.7360    0.1208   -0.0037 C   0  0  0  0  0  0  0  0  0  0  0  0
    2.6040    1.4870    0.1760 C   0  0  0  0  0  0  0  0  0  0  0  0
    1.3690    2.0976    0.3657 C   0  0  0  0  0  0  0  0  0  0  0  0
    0.2130    1.3221    0.3788 C   0  0  0  0  0  0  0  0  0  0  0  0
    0.3219   -0.0439    0.2015 C   0  0  0  0  0  0  0  0  0  0  0  0
   -1.9146    0.5743   -1.6254 H   0  0  0  0  0  0  0  0  0  0  0  0
   -3.0328    1.5541   -0.5750 H   0  0  0  0  0  0  0  0  0  0  0  0
   -3.5753    0.0086   -1.2670 H   0  0  0  0  0  0  0  0  0  0  0  0
   -2.2258    0.4731    1.3108 H   0  0  0  0  0  0  0  0  0  0  0  0
   -2.8998   -1.0235    0.6203 H   0  0  0  0  0  0  0  0  0  0  0  0
   -1.4889   -2.8274    0.0338 H   0  0  0  0  0  0  0  0  0  0  0  0
    2.6630   -2.4442   -0.3078 H   0  0  0  0  0  0  0  0  0  0  0  0
    3.7215   -0.3131   -0.1453 H   0  0  0  0  0  0  0  0  0  0  0  0
    3.5007    2.1047    0.1702 H   0  0  0  0  0  0  0  0  0  0  0  0
    1.2962    3.1668    0.5052 H   0  0  0  0  0  0  0  0  0  0  0  0
   -0.7769    1.7577    0.5223 H   0  0  0  0  0  0  0  0  0  0  0  0
  1 14  1  0  0  0  0
  1  2  1  0  0  0  0
  2 17  1  0  0  0  0
  2 16  1  0  0  0  0
  3  2  1  0  0  0  0
  4  3  2  0  0  0  0
  5  4  1  0  0  0  0
  6  5  2  0  0  0  0
  6  7  1  0  0  0  0
  7 12  1  0  0  0  0
  8  7  2  0  0  0  0
  8  9  1  0  0  0  0
  9 10  2  0  0  0  0
 10 11  1  0  0  0  0
 10 22  1  0  0  0  0
 11 23  1  0  0  0  0
 12  3  1  0  0  0  0
 12 11  2  0  0  0  0
 13  1  1  0  0  0  0
 15  1  1  0  0  0  0
 18  4  1  0  0  0  0
 19  6  1  0  0  0  0
 20  8  1  0  0  0  0
 21  9  1  0  0  0  0
M  END
$$$$
