pyrmd4.xyz
 OpenBabel10182410313D

 22 23  0  0  1  0  0  0  0  0999 V2000
   -3.2652   -0.2145   -0.0409 C   0  0  0  0  0  0  0  0  0  0  0  0
   -1.8496   -0.7898   -0.0675 C   0  0  0  0  0  0  0  0  0  0  0  0
   -0.8677    0.3113    0.0159 C   0  0  2  0  0  3  0  0  0  0  0  0
   -1.2386    1.6159    0.1010 N   0  0  0  0  0  0  0  0  0  0  0  0
   -0.2715    2.5717    0.1744 C   0  0  0  0  0  0  0  0  0  0  0  0
    1.0370    2.2828    0.1663 N   0  0  0  0  0  2  0  0  0  0  0  0
    1.4116    0.9969    0.0825 C   0  0  0  0  0  0  0  0  0  0  0  0
    2.7781    0.6976    0.0743 C   0  0  0  0  0  0  0  0  0  0  0  0
    3.2049   -0.6306   -0.0120 C   0  0  0  0  0  0  0  0  0  0  0  0
    2.2434   -1.6180   -0.0874 C   0  0  0  0  0  0  0  0  0  0  0  0
    0.8734   -1.3436   -0.0809 C   0  0  0  0  0  0  0  0  0  0  0  0
    0.4677   -0.0294    0.0046 C   0  0  0  0  0  0  0  0  0  0  0  0
   -3.5508   -0.1197    1.0294 H   0  0  0  0  0  0  0  0  0  0  0  0
   -3.3745    0.7070   -0.6124 H   0  0  0  0  0  0  0  0  0  0  0  0
   -3.9041   -1.0317   -0.4446 H   0  0  0  0  0  0  0  0  0  0  0  0
   -1.7527   -1.2364   -1.0962 H   0  0  0  0  0  0  0  0  0  0  0  0
   -1.8024   -1.5231    0.7382 H   0  0  0  0  0  0  0  0  0  0  0  0
   -0.6437    3.5671    0.2386 H   0  0  0  0  0  0  0  0  0  0  0  0
    3.5212    1.4871    0.1343 H   0  0  0  0  0  0  0  0  0  0  0  0
    4.2521   -0.9117   -0.0218 H   0  0  0  0  0  0  0  0  0  0  0  0
    2.5810   -2.6480   -0.1543 H   0  0  0  0  0  0  0  0  0  0  0  0
    0.1504   -2.1408   -0.1414 H   0  0  0  0  0  0  0  0  0  0  0  0
  1 13  1  0  0  0  0
  2  1  1  0  0  0  0
  2 17  1  0  0  0  0
  3  2  1  6  0  0  0
  3  4  1  0  0  0  0
  4  5  2  0  0  0  0
  5 18  1  0  0  0  0
  6  5  1  0  0  0  0
  7  6  1  0  0  0  0
  8  7  1  0  0  0  0
  8 19  1  0  0  0  0
  9  8  2  0  0  0  0
 10 11  2  0  0  0  0
 10  9  1  0  0  0  0
 11 12  1  0  0  0  0
 12  3  1  0  0  0  0
 12  7  2  0  0  0  0
 14  1  1  0  0  0  0
 15  1  1  0  0  0  0
 16  2  1  0  0  0  0
 20  9  1  0  0  0  0
 21 10  1  0  0  0  0
 22 11  1  0  0  0  0
M  END
$$$$
