pyrmd8.xyz
 OpenBabel10182410313D

 16 16  0  0  0  0  0  0  0  0999 V2000
   -2.4528    0.1316   -0.4835 C   0  0  0  0  0  0  0  0  0  0  0  0
   -1.5621    0.0529    0.7358 C   0  0  0  0  0  0  0  0  0  0  0  0
   -0.1165    0.0762    0.4095 C   0  0  0  0  0  0  0  0  0  0  0  0
    0.4718   -1.1148    0.1985 N   0  0  0  0  0  0  0  0  0  0  0  0
    1.7693   -1.2553   -0.1049 C   0  0  0  0  0  0  0  0  0  0  0  0
    2.5818   -0.1384   -0.2163 C   0  0  0  0  0  0  0  0  0  0  0  0
    1.9705    1.0813    0.0018 C   0  0  0  0  0  0  0  0  0  0  0  0
    0.6512    1.1822    0.3076 N   0  0  0  0  0  0  0  0  0  0  0  0
   -2.9598    1.1180   -0.5670 H   0  0  0  0  0  0  0  0  0  0  0  0
   -1.9411   -0.1181   -1.4134 H   0  0  0  0  0  0  0  0  0  0  0  0
   -3.2742   -0.6194   -0.3349 H   0  0  0  0  0  0  0  0  0  0  0  0
   -1.7867    0.9650    1.3528 H   0  0  0  0  0  0  0  0  0  0  0  0
   -1.7754   -0.8312    1.3501 H   0  0  0  0  0  0  0  0  0  0  0  0
    2.2096   -2.2410   -0.2690 H   0  0  0  0  0  0  0  0  0  0  0  0
    3.6290   -0.2472   -0.4609 H   0  0  0  0  0  0  0  0  0  0  0  0
    2.5855    1.9582   -0.0804 H   0  0  0  0  0  0  0  0  0  0  0  0
  1 11  1  0  0  0  0
  1  2  1  0  0  0  0
  2 13  1  0  0  0  0
  2 12  1  0  0  0  0
  3  2  1  0  0  0  0
  4  3  2  0  0  0  0
  5  4  1  0  0  0  0
  6  5  2  0  0  0  0
  6  7  1  0  0  0  0
  7  8  2  0  0  0  0
  8  3  1  0  0  0  0
  9  1  1  0  0  0  0
 10  1  1  0  0  0  0
 14  5  1  0  0  0  0
 15  6  1  0  0  0  0
 16  7  1  0  0  0  0
M  END
$$$$
