pyrz2.xyz
 OpenBabel10182410313D

 22 23  0  0  0  0  0  0  0  0999 V2000
    3.4728   -0.2388    0.4059 C   0  0  0  0  0  0  0  0  0  0  0  0
    2.5723    0.9712    0.5763 C   0  0  0  0  0  0  0  0  0  0  0  0
    1.2065    0.6768    0.0158 C   0  0  0  0  0  0  0  0  0  0  0  0
    0.2763    0.1466    0.8254 N   0  0  0  0  0  0  0  0  0  0  0  0
   -0.9861   -0.1521    0.4038 C   0  0  0  0  0  0  0  0  0  0  0  0
   -1.8871   -0.6961    1.2980 C   0  0  0  0  0  0  0  0  0  0  0  0
   -3.1693   -0.9902    0.8359 C   0  0  0  0  0  0  0  0  0  0  0  0
   -3.4338   -0.7132   -0.4791 C   0  0  0  0  0  0  0  0  0  0  0  0
   -2.5747   -0.1734   -1.4079 C   0  0  0  0  0  0  0  0  0  0  0  0
   -1.2990    0.1152   -0.9340 C   0  0  0  0  0  0  0  0  0  0  0  0
   -0.3659    0.6420   -1.7281 N   0  0  0  0  0  0  0  0  0  0  0  0
    0.8780    0.9333   -1.3014 C   0  0  0  0  0  0  0  0  0  0  0  0
    2.7956   -1.1231    0.3703 H   0  0  0  0  0  0  0  0  0  0  0  0
    4.1384   -0.3577    1.2658 H   0  0  0  0  0  0  0  0  0  0  0  0
    4.0706   -0.1857   -0.5153 H   0  0  0  0  0  0  0  0  0  0  0  0
    2.9978    1.8541    0.1053 H   0  0  0  0  0  0  0  0  0  0  0  0
    2.5170    1.1728    1.6578 H   0  0  0  0  0  0  0  0  0  0  0  0
   -1.6400   -0.8970    2.3175 H   0  0  0  0  0  0  0  0  0  0  0  0
   -3.9207   -1.4169    1.4842 H   0  0  0  0  0  0  0  0  0  0  0  0
   -4.4427   -0.9427   -0.8497 H   0  0  0  0  0  0  0  0  0  0  0  0
   -2.8582    0.0128   -2.4177 H   0  0  0  0  0  0  0  0  0  0  0  0
    1.6522    1.3618   -1.9290 H   0  0  0  0  0  0  0  0  0  0  0  0
  1  2  1  0  0  0  0
  1 14  1  0  0  0  0
  2 17  1  0  0  0  0
  3  2  1  0  0  0  0
  3  4  1  0  0  0  0
  5  4  2  0  0  0  0
  5  6  1  0  0  0  0
  6 18  1  0  0  0  0
  7  6  2  0  0  0  0
  7 19  1  0  0  0  0
  8  7  1  0  0  0  0
  9 10  1  0  0  0  0
  9  8  2  0  0  0  0
 10  5  1  0  0  0  0
 11 12  1  0  0  0  0
 11 10  2  0  0  0  0
 12  3  2  0  0  0  0
 13  1  1  0  0  0  0
 15  1  1  0  0  0  0
 16  2  1  0  0  0  0
 20  8  1  0  0  0  0
 21  9  1  0  0  0  0
 22 12  1  0  0  0  0
M  END
$$$$
