pyrz3.xyz
 OpenBabel10182410313D

 13 13  0  0  0  0  0  0  0  0999 V2000
   -2.0182    0.2422   -0.2481 C   0  0  0  0  0  0  0  0  0  0  0  0
   -0.5434    0.0871   -0.0878 C   0  0  0  0  0  0  0  0  0  0  0  0
    0.3000    0.9405   -0.6981 N   0  0  0  0  0  0  0  0  0  0  0  0
    1.6386    0.7930   -0.5476 C   0  0  0  0  0  0  0  0  0  0  0  0
    2.0708   -0.2517    0.2438 C   0  0  0  0  0  0  0  0  0  0  0  0
    1.2166   -1.0980    0.8485 N   0  0  0  0  0  0  0  0  0  0  0  0
   -0.1151   -0.9590    0.7046 C   0  0  0  0  0  0  0  0  0  0  0  0
   -2.5096   -0.6542   -0.6775 H   0  0  0  0  0  0  0  0  0  0  0  0
   -2.2729    1.1224   -0.8610 H   0  0  0  0  0  0  0  0  0  0  0  0
   -2.4220    0.3291    0.7903 H   0  0  0  0  0  0  0  0  0  0  0  0
    2.3513    1.4555   -1.0196 H   0  0  0  0  0  0  0  0  0  0  0  0
    3.1356   -0.3874    0.3773 H   0  0  0  0  0  0  0  0  0  0  0  0
   -0.8317   -1.6196    1.1751 H   0  0  0  0  0  0  0  0  0  0  0  0
  1  2  1  0  0  0  0
  1 10  1  0  0  0  0
  2  7  1  0  0  0  0
  3  4  1  0  0  0  0
  3  2  2  0  0  0  0
  4  5  2  0  0  0  0
  5 12  1  0  0  0  0
  5  6  1  0  0  0  0
  7  6  2  0  0  0  0
  7 13  1  0  0  0  0
  8  1  1  0  0  0  0
  9  1  1  0  0  0  0
 11  4  1  0  0  0  0
M  END
$$$$
