pyrd8.xyz
 OpenBabel10162414093D

 23 24  0  0  0  0  0  0  0  0999 V2000
   -3.3164    0.7275   -0.4537 C   0  0  0  0  0  0  0  0  0  0  0  0
   -2.7296   -0.6127   -0.0698 C   0  0  0  0  0  0  0  0  0  0  0  0
   -1.3247   -0.3672    0.3209 C   0  0  0  0  0  0  0  0  0  0  0  0
   -0.3315   -0.4327   -0.6606 C   0  0  0  0  0  0  0  0  0  0  0  0
    0.9794   -0.2050   -0.3036 C   0  0  0  0  0  0  0  0  0  0  0  0
    1.9198   -0.2810   -1.3066 C   0  0  0  0  0  0  0  0  0  0  0  0
    3.2524   -0.0696   -1.0494 C   0  0  0  0  0  0  0  0  0  0  0  0
    3.5832    0.2202    0.2630 C   0  0  0  0  0  0  0  0  0  0  0  0
    2.6710    0.3100    1.3203 C   0  0  0  0  0  0  0  0  0  0  0  0
    1.3546    0.0868    0.9907 C   0  0  0  0  0  0  0  0  0  0  0  0
    0.3872    0.1466    1.9254 N   0  0  0  0  0  0  0  0  0  0  0  0
   -0.9100   -0.0724    1.6055 C   0  0  0  0  0  0  0  0  0  0  0  0
   -2.5410    1.5158   -0.5859 H   0  0  0  0  0  0  0  0  0  0  0  0
   -4.0787    1.0799    0.2864 H   0  0  0  0  0  0  0  0  0  0  0  0
   -3.8580    0.6734   -1.4280 H   0  0  0  0  0  0  0  0  0  0  0  0
   -3.2974   -1.0966    0.7540 H   0  0  0  0  0  0  0  0  0  0  0  0
   -2.7293   -1.2413   -0.9824 H   0  0  0  0  0  0  0  0  0  0  0  0
   -0.6160   -0.6589   -1.6685 H   0  0  0  0  0  0  0  0  0  0  0  0
    1.6261   -0.5081   -2.3127 H   0  0  0  0  0  0  0  0  0  0  0  0
    4.0416   -0.1149   -1.7938 H   0  0  0  0  0  0  0  0  0  0  0  0
    4.6320    0.3924    0.4961 H   0  0  0  0  0  0  0  0  0  0  0  0
    2.9917    0.5381    2.3148 H   0  0  0  0  0  0  0  0  0  0  0  0
   -1.7065   -0.0303    2.3377 H   0  0  0  0  0  0  0  0  0  0  0  0
  1  2  1  0  0  0  0
  1 14  1  0  0  0  0
  2  3  1  0  0  0  0
  2 16  1  0  0  0  0
  3 12  1  0  0  0  0
  4  5  1  0  0  0  0
  4  3  2  0  0  0  0
  5 10  1  0  0  0  0
  6  7  1  0  0  0  0
  6  5  2  0  0  0  0
  7  8  2  0  0  0  0
  8 21  1  0  0  0  0
  8  9  1  0  0  0  0
  9 22  1  0  0  0  0
 10  9  2  0  0  0  0
 10 11  1  0  0  0  0
 12 11  2  0  0  0  0
 12 23  1  0  0  0  0
 13  1  1  0  0  0  0
 15  1  1  0  0  0  0
 17  2  1  0  0  0  0
 18  4  1  0  0  0  0
 19  6  1  0  0  0  0
 20  7  1  0  0  0  0
M  END
$$$$
