pyrd2.xyz
 OpenBabel10162414093D

 20 21  0  0  0  0  0  0  0  0999 V2000
    3.2442   -0.4122   -0.0325 C   0  0  0  0  0  0  0  0  0  0  0  0
    1.8290    0.0387   -0.0982 C   0  0  0  0  0  0  0  0  0  0  0  0
    0.8429   -0.8895    0.2517 C   0  0  0  0  0  0  0  0  0  0  0  0
   -0.4713   -0.4709    0.1907 C   0  0  0  0  0  0  0  0  0  0  0  0
   -1.5367   -1.2990    0.5131 C   0  0  0  0  0  0  0  0  0  0  0  0
   -2.8137   -0.7747    0.4164 C   0  0  0  0  0  0  0  0  0  0  0  0
   -3.0944    0.5223    0.0187 C   0  0  0  0  0  0  0  0  0  0  0  0
   -2.0134    1.3226   -0.2957 C   0  0  0  0  0  0  0  0  0  0  0  0
   -0.7229    0.8415   -0.2135 C   0  0  0  0  0  0  0  0  0  0  0  0
    0.2441    1.7250   -0.5481 N   0  0  0  0  0  0  0  0  0  0  0  0
    1.5414    1.3291   -0.4934 C   0  0  0  0  0  0  0  0  0  0  0  0
    3.5927   -0.8653   -0.9774 H   0  0  0  0  0  0  0  0  0  0  0  0
    3.3873   -1.1345    0.8025 H   0  0  0  0  0  0  0  0  0  0  0  0
    3.8745    0.4909    0.1115 H   0  0  0  0  0  0  0  0  0  0  0  0
    1.0742   -1.8996    0.5607 H   0  0  0  0  0  0  0  0  0  0  0  0
   -1.3470   -2.3052    0.8232 H   0  0  0  0  0  0  0  0  0  0  0  0
   -3.6606   -1.4172    0.6677 H   0  0  0  0  0  0  0  0  0  0  0  0
   -4.1323    0.8721   -0.0356 H   0  0  0  0  0  0  0  0  0  0  0  0
   -2.2231    2.3370   -0.6073 H   0  0  0  0  0  0  0  0  0  0  0  0
    2.3852    1.9889   -0.7501 H   0  0  0  0  0  0  0  0  0  0  0  0
  1 14  1  0  0  0  0
  1 13  1  0  0  0  0
  2  1  1  0  0  0  0
  2  3  1  0  0  0  0
  3 15  1  0  0  0  0
  4  3  2  0  0  0  0
  4  5  1  0  0  0  0
  5 16  1  0  0  0  0
  6  5  2  0  0  0  0
  6 17  1  0  0  0  0
  7  6  1  0  0  0  0
  8  9  1  0  0  0  0
  8  7  2  0  0  0  0
  9  4  1  0  0  0  0
 10 11  1  0  0  0  0
 10  9  2  0  0  0  0
 11  2  2  0  0  0  0
 12  1  1  0  0  0  0
 18  7  1  0  0  0  0
 19  8  1  0  0  0  0
 20 11  1  0  0  0  0
M  END
$$$$
