pyrd13.xyz
 OpenBabel10162414093D

 14 14  0  0  0  0  0  0  0  0999 V2000
   -2.1910   -0.1921    0.1457 C   0  0  0  0  0  0  0  0  0  0  0  0
   -0.6974   -0.1991    0.0508 C   0  0  0  0  0  0  0  0  0  0  0  0
   -0.0147   -1.3613    0.0591 N   0  0  0  0  0  0  0  0  0  0  0  0
    1.3475   -1.3585   -0.0279 C   0  0  0  0  0  0  0  0  0  0  0  0
    1.9366   -0.1138   -0.1208 C   0  0  0  0  0  0  0  0  0  0  0  0
    1.3124    1.1153   -0.1358 C   0  0  0  0  0  0  0  0  0  0  0  0
   -0.0774    1.0422   -0.0439 C   0  0  0  0  0  0  0  0  0  0  0  0
   -2.6569   -1.0419   -0.3888 H   0  0  0  0  0  0  0  0  0  0  0  0
   -2.6017    0.7346   -0.2670 H   0  0  0  0  0  0  0  0  0  0  0  0
   -2.5317   -0.2509    1.2044 H   0  0  0  0  0  0  0  0  0  0  0  0
    1.9586   -2.2507   -0.0271 H   0  0  0  0  0  0  0  0  0  0  0  0
    3.0237   -0.1054   -0.1905 H   0  0  0  0  0  0  0  0  0  0  0  0
    1.8527    2.0282   -0.2109 H   0  0  0  0  0  0  0  0  0  0  0  0
   -0.6606    1.9535   -0.0474 H   0  0  0  0  0  0  0  0  0  0  0  0
  1 10  1  0  0  0  0
  2  3  1  0  0  0  0
  2  1  1  0  0  0  0
  4 11  1  0  0  0  0
  4  3  2  0  0  0  0
  5  4  1  0  0  0  0
  6  5  2  0  0  0  0
  6  7  1  0  0  0  0
  7  2  2  0  0  0  0
  8  1  1  0  0  0  0
  9  1  1  0  0  0  0
 12  5  1  0  0  0  0
 13  6  1  0  0  0  0
 14  7  1  0  0  0  0
M  END
$$$$
