pyrd4.xyz
 OpenBabel10162414093D

 20 21  0  0  0  0  0  0  0  0999 V2000
   -2.5973   -0.7723   -0.2424 C   0  0  0  0  0  0  0  0  0  0  0  0
   -1.4921    0.2275   -0.2240 C   0  0  0  0  0  0  0  0  0  0  0  0
   -1.7461    1.5277   -0.4238 N   0  0  0  0  0  0  0  0  0  0  0  0
   -0.7142    2.3915   -0.3977 C   0  0  0  0  0  0  0  0  0  0  0  0
    0.6183    2.0885   -0.1829 C   0  0  0  0  0  0  0  0  0  0  0  0
    0.8679    0.7461    0.0216 C   0  0  0  0  0  0  0  0  0  0  0  0
    2.1699    0.3538    0.2439 C   0  0  0  0  0  0  0  0  0  0  0  0
    2.4832   -0.9729    0.4548 C   0  0  0  0  0  0  0  0  0  0  0  0
    1.4158   -1.8434    0.4250 C   0  0  0  0  0  0  0  0  0  0  0  0
    0.0930   -1.5223    0.2091 C   0  0  0  0  0  0  0  0  0  0  0  0
   -0.1757   -0.1767    0.0016 C   0  0  0  0  0  0  0  0  0  0  0  0
   -3.4295   -0.3140   -0.8522 H   0  0  0  0  0  0  0  0  0  0  0  0
   -2.9570   -0.8859    0.7922 H   0  0  0  0  0  0  0  0  0  0  0  0
   -2.3489   -1.6995   -0.7626 H   0  0  0  0  0  0  0  0  0  0  0  0
   -1.0039    3.4383   -0.5698 H   0  0  0  0  0  0  0  0  0  0  0  0
    1.3621    2.8754   -0.1851 H   0  0  0  0  0  0  0  0  0  0  0  0
    2.9797    1.0810    0.2580 H   0  0  0  0  0  0  0  0  0  0  0  0
    3.4836   -1.3563    0.6360 H   0  0  0  0  0  0  0  0  0  0  0  0
    1.6417   -2.9069    0.5907 H   0  0  0  0  0  0  0  0  0  0  0  0
   -0.6505   -2.2794    0.2075 H   0  0  0  0  0  0  0  0  0  0  0  0
  1  2  1  0  0  0  0
  1 13  1  0  0  0  0
  2 11  1  0  0  0  0
  3  4  1  0  0  0  0
  3  2  2  0  0  0  0
  4  5  2  0  0  0  0
  5  6  1  0  0  0  0
  6  7  1  0  0  0  0
  7 17  1  0  0  0  0
  7  8  2  0  0  0  0
  8 18  1  0  0  0  0
  9  8  1  0  0  0  0
  9 19  1  0  0  0  0
 10  9  2  0  0  0  0
 11  6  2  0  0  0  0
 11 10  1  0  0  0  0
 12  1  1  0  0  0  0
 14  1  1  0  0  0  0
 15  4  1  0  0  0  0
 16  5  1  0  0  0  0
 20 10  1  0  0  0  0
M  END
$$$$
