pyrmd3.xyz
 OpenBabel10162414093D

 22 23  0  0  0  0  0  0  0  0999 V2000
   -3.4875   -0.6314   -0.7657 C   0  0  0  0  0  0  0  0  0  0  0  0
   -2.7957   -0.6150    0.5778 C   0  0  0  0  0  0  0  0  0  0  0  0
   -1.3894   -0.1049    0.4436 C   0  0  0  0  0  0  0  0  0  0  0  0
   -0.3528   -0.9596    0.1989 N   0  0  0  0  0  0  0  0  0  0  0  0
    0.9132   -0.4616    0.0827 C   0  0  0  0  0  0  0  0  0  0  0  0
    1.9563   -1.3178   -0.1630 C   0  0  0  0  0  0  0  0  0  0  0  0
    3.2594   -0.8402   -0.2868 C   0  0  0  0  0  0  0  0  0  0  0  0
    3.4050    0.5228   -0.1456 C   0  0  0  0  0  0  0  0  0  0  0  0
    2.4039    1.4369    0.1011 C   0  0  0  0  0  0  0  0  0  0  0  0
    1.1300    0.8900    0.2127 C   0  0  0  0  0  0  0  0  0  0  0  0
    0.0779    1.7661    0.4620 C   0  0  0  0  0  0  0  0  0  0  0  0
   -1.1599    1.2140    0.5679 N   0  0  0  0  0  0  0  0  0  0  0  0
   -2.9916    0.1504   -1.3878 H   0  0  0  0  0  0  0  0  0  0  0  0
   -3.4464   -1.6213   -1.2746 H   0  0  0  0  0  0  0  0  0  0  0  0
   -4.5511   -0.3376   -0.6961 H   0  0  0  0  0  0  0  0  0  0  0  0
   -3.3174    0.0713    1.2574 H   0  0  0  0  0  0  0  0  0  0  0  0
   -2.7804   -1.6101    1.0239 H   0  0  0  0  0  0  0  0  0  0  0  0
    1.7582   -2.3604   -0.2591 H   0  0  0  0  0  0  0  0  0  0  0  0
    4.1096   -1.4799   -0.4803 H   0  0  0  0  0  0  0  0  0  0  0  0
    4.4136    0.9440   -0.2353 H   0  0  0  0  0  0  0  0  0  0  0  0
    2.6271    2.4946    0.1955 H   0  0  0  0  0  0  0  0  0  0  0  0
    0.2180    2.8498    0.5709 H   0  0  0  0  0  0  0  0  0  0  0  0
  1 15  1  0  0  0  0
  1  2  1  0  0  0  0
  2 17  1  0  0  0  0
  2 16  1  0  0  0  0
  3 12  1  0  0  0  0
  3  2  1  0  0  0  0
  4  3  2  0  0  0  0
  5  4  1  0  0  0  0
  5 10  1  0  0  0  0
  6  5  2  0  0  0  0
  7  6  1  0  0  0  0
  7  8  2  0  0  0  0
  8  9  1  0  0  0  0
  9 21  1  0  0  0  0
  9 10  2  0  0  0  0
 10 11  1  0  0  0  0
 11 12  2  0  0  0  0
 11 22  1  0  0  0  0
 13  1  1  0  0  0  0
 14  1  1  0  0  0  0
 18  6  1  0  0  0  0
 19  7  1  0  0  0  0
 20  8  1  0  0  0  0
M  END
$$$$
