pyrmd1.xyz
 OpenBabel10162414093D

 19 20  0  0  0  0  0  0  0  0999 V2000
    3.4009    0.4884   -0.2522 C   0  0  0  0  0  0  0  0  0  0  0  0
    1.9852   -0.0095   -0.2501 C   0  0  0  0  0  0  0  0  0  0  0  0
    1.0308    0.8493    0.1605 N   0  0  0  0  0  0  0  0  0  0  0  0
   -0.2858    0.5039    0.2027 C   0  0  0  0  0  0  0  0  0  0  0  0
   -0.6115   -0.7770   -0.1963 C   0  0  0  0  0  0  0  0  0  0  0  0
   -1.9615   -1.1374   -0.1552 C   0  0  0  0  0  0  0  0  0  0  0  0
   -2.8609   -0.1779    0.2832 C   0  0  0  0  0  0  0  0  0  0  0  0
   -2.5250    1.1001    0.6801 C   0  0  0  0  0  0  0  0  0  0  0  0
   -1.1731    1.4592    0.6382 C   0  0  0  0  0  0  0  0  0  0  0  0
    0.3579   -1.6739   -0.6218 C   0  0  0  0  0  0  0  0  0  0  0  0
    1.6491   -1.2708   -0.6412 N   0  0  0  0  0  0  0  0  0  0  0  0
    3.4777    1.5015   -0.6930 H   0  0  0  0  0  0  0  0  0  0  0  0
    3.7971    0.4665    0.7993 H   0  0  0  0  0  0  0  0  0  0  0  0
    4.0116   -0.2366   -0.8136 H   0  0  0  0  0  0  0  0  0  0  0  0
   -2.2806   -2.1245   -0.4544 H   0  0  0  0  0  0  0  0  0  0  0  0
   -3.9083   -0.5177    0.2945 H   0  0  0  0  0  0  0  0  0  0  0  0
   -3.3061    1.7757    1.0067 H   0  0  0  0  0  0  0  0  0  0  0  0
   -0.8774    2.4473    0.9406 H   0  0  0  0  0  0  0  0  0  0  0  0
    0.0799   -2.6667   -0.9280 H   0  0  0  0  0  0  0  0  0  0  0  0
  1  2  1  0  0  0  0
  1 13  1  0  0  0  0
  2  3  2  0  0  0  0
  3  4  1  0  0  0  0
  4  9  1  0  0  0  0
  5  6  1  0  0  0  0
  5  4  2  0  0  0  0
  6  7  2  0  0  0  0
  7 16  1  0  0  0  0
  7  8  1  0  0  0  0
  8 17  1  0  0  0  0
  9  8  2  0  0  0  0
  9 18  1  0  0  0  0
 10  5  1  0  0  0  0
 11 10  2  0  0  0  0
 11  2  1  0  0  0  0
 12  1  1  0  0  0  0
 14  1  1  0  0  0  0
 15  6  1  0  0  0  0
 19 10  1  0  0  0  0
M  END
$$$$
